1Y0L_lig_H_HAN_1_hfixed.pdb
     RDKit          3D

 19 20  0  0  0  0  0  0  0  0999 V2000
   -1.6657   -0.6673   -1.4159 N   0  0  0  0  0  0  0  0  0  0  0  0
   -2.3699   -1.0426   -1.3647 C   0  0  0  0  0  0  0  0  0  0  0  0
   -1.7788   -0.6101   -1.6176 N   0  0  0  0  0  0  0  0  0  0  0  0
    0.4990    0.8594   -2.0806 C   0  0  0  0  0  0  0  0  0  0  0  0
    1.6232    1.4272   -2.3700 C   0  0  0  0  0  0  0  0  0  0  0  0
    1.5825    1.3770   -2.3660 C   0  0  0  0  0  0  0  0  0  0  0  0
    0.6416    0.7500   -2.0795 C   0  0  0  0  0  0  0  0  0  0  0  0
   -0.5015    0.1350   -1.8383 C   0  0  0  0  0  0  0  0  0  0  0  0
   -0.4055    0.0941   -1.7818 C   0  0  0  0  0  0  0  0  0  0  0  0
    2.8704    2.2306   -2.6754 C   0  0  0  0  0  0  0  0  0  0  0  0
    2.7310    2.0930   -2.7543 C   0  0  0  0  0  0  0  0  0  0  0  0
   -3.6323   -1.7922   -1.1625 N   0  0  0  0  0  0  0  0  0  0  0  0
   -1.9768   -0.9273   -1.1042 C   0  0  0  0  0  0  0  0  0  0  0  0
   -1.3762   -0.5159   -1.9080 C   0  0  0  0  0  0  0  0  0  0  0  0
   -0.4112    0.0856   -1.9598 C   0  0  0  0  0  0  0  0  0  0  0  0
    0.1027    0.8433   -1.3830 C   0  0  0  0  0  0  0  0  0  0  0  0
    1.1921    1.0513   -2.3225 C   0  0  0  0  0  0  0  0  0  0  0  0
    1.2517    0.2667   -3.3857 O   0  0  0  0  0  0  0  0  0  0  0  0
    1.9659    1.9296   -2.1222 O   0  0  0  0  0  0  0  0  0  0  0  0
  1  2  1  0
  1  9  1  0
  1 13  1  0
  2  3  2  0
  2 12  1  0
  3  8  1  0
  4  5  1  0
  4  8  2  0
  5  6  2  0
  5 10  1  0
  6  7  1  0
  6 11  1  0
  7  9  2  0
  8  9  1  0
 13 14  1  0
 14 15  1  0
 15 16  1  0
 16 17  1  0
 17 18  2  0
 17 19  1  0
M  END
$$$$
