1Y0L_lig_H_HAN_1_hfixed.pdb
     RDKit          3D

 19 20  0  0  0  0  0  0  0  0999 V2000
   -4.4552   -1.6587   -4.0320 N   0  0  0  0  0  0  0  0  0  0  0  0
   -5.0100   -1.7319   -4.4484 C   0  0  0  0  0  0  0  0  0  0  0  0
   -4.5641   -1.5931   -3.9301 N   0  0  0  0  0  0  0  0  0  0  0  0
   -2.4264   -1.2917   -2.0392 C   0  0  0  0  0  0  0  0  0  0  0  0
   -1.4039   -1.2207   -1.3093 C   0  0  0  0  0  0  0  0  0  0  0  0
   -1.4541   -1.3119   -1.4673 C   0  0  0  0  0  0  0  0  0  0  0  0
   -2.3319   -1.4779   -2.2946 C   0  0  0  0  0  0  0  0  0  0  0  0
   -3.3687   -1.5004   -2.9772 C   0  0  0  0  0  0  0  0  0  0  0  0
   -3.3530   -1.5374   -3.0666 C   0  0  0  0  0  0  0  0  0  0  0  0
   -0.3550   -0.8701   -0.2860 C   0  0  0  0  0  0  0  0  0  0  0  0
   -0.3395   -1.2912   -0.6154 C   0  0  0  0  0  0  0  0  0  0  0  0
   -6.1686   -1.8223   -5.3814 N   0  0  0  0  0  0  0  0  0  0  0  0
   -5.0566   -1.7688   -4.7031 C   0  0  0  0  0  0  0  0  0  0  0  0
   -5.9873   -1.5162   -5.1610 C   0  0  0  0  0  0  0  0  0  0  0  0
   -6.7088   -2.2086   -5.6960 C   0  0  0  0  0  0  0  0  0  0  0  0
   -6.8973   -1.7287   -6.8316 C   0  0  0  0  0  0  0  0  0  0  0  0
   -8.4239   -1.9823   -7.3161 C   0  0  0  0  0  0  0  0  0  0  0  0
   -8.6769   -2.4933   -8.3749 O   0  0  0  0  0  0  0  0  0  0  0  0
   -9.3034   -1.6806   -6.3354 O   0  0  0  0  0  0  0  0  0  0  0  0
  1  2  1  0
  1  9  1  0
  1 13  1  0
  2  3  2  0
  2 12  1  0
  3  8  1  0
  4  5  1  0
  4  8  2  0
  5  6  2  0
  5 10  1  0
  6  7  1  0
  6 11  1  0
  7  9  2  0
  8  9  1  0
 13 14  1  0
 14 15  1  0
 15 16  1  0
 16 17  1  0
 17 18  2  0
 17 19  1  0
M  END
$$$$
1Y0L_lig_H_HAN_1_hfixed.pdb
     RDKit          3D

 19 20  0  0  0  0  0  0  0  0999 V2000
   -1.8819   -0.4189   -0.2925 N   0  0  0  0  0  0  0  0  0  0  0  0
   -2.6370   -0.5496    0.1089 C   0  0  0  0  0  0  0  0  0  0  0  0
   -1.9701   -0.4696    0.1464 N   0  0  0  0  0  0  0  0  0  0  0  0
    0.7151   -0.0681   -0.4695 C   0  0  0  0  0  0  0  0  0  0  0  0
    1.8844    0.0853   -1.0460 C   0  0  0  0  0  0  0  0  0  0  0  0
    1.7348    0.0461   -1.2375 C   0  0  0  0  0  0  0  0  0  0  0  0
    0.6218   -0.0911   -1.0659 C   0  0  0  0  0  0  0  0  0  0  0  0
   -0.5433   -0.2396   -0.3906 C   0  0  0  0  0  0  0  0  0  0  0  0
   -0.5606   -0.2409   -0.5930 C   0  0  0  0  0  0  0  0  0  0  0  0
    3.3583    0.2628   -1.1256 C   0  0  0  0  0  0  0  0  0  0  0  0
    3.0299    0.1302   -1.7711 C   0  0  0  0  0  0  0  0  0  0  0  0
   -3.9895   -0.7974    0.5090 N   0  0  0  0  0  0  0  0  0  0  0  0
   -2.6018   -0.4572   -0.4707 C   0  0  0  0  0  0  0  0  0  0  0  0
   -3.5795   -0.8319    0.1281 C   0  0  0  0  0  0  0  0  0  0  0  0
   -4.5728   -0.4490    0.4075 C   0  0  0  0  0  0  0  0  0  0  0  0
   -5.2527   -0.8041    1.2511 C   0  0  0  0  0  0  0  0  0  0  0  0
   -6.6703   -0.9452    1.0195 C   0  0  0  0  0  0  0  0  0  0  0  0
   -7.0348   -0.9201   -0.2968 O   0  0  0  0  0  0  0  0  0  0  0  0
   -7.6602   -1.0561    1.5930 O   0  0  0  0  0  0  0  0  0  0  0  0
  1  2  1  0
  1  9  1  0
  1 13  1  0
  2  3  2  0
  2 12  1  0
  3  8  1  0
  4  5  1  0
  4  8  2  0
  5  6  2  0
  5 10  1  0
  6  7  1  0
  6 11  1  0
  7  9  2  0
  8  9  1  0
 13 14  1  0
 14 15  1  0
 15 16  1  0
 16 17  1  0
 17 18  2  0
 17 19  1  0
M  END
$$$$
1Y0L_lig_H_HAN_1_hfixed.pdb
     RDKit          3D

 19 20  0  0  0  0  0  0  0  0999 V2000
   -2.2130    1.7171   -2.4351 N   0  0  0  0  0  0  0  0  0  0  0  0
   -2.2389    2.0003   -3.1157 C   0  0  0  0  0  0  0  0  0  0  0  0
   -2.4668    1.1213   -3.2149 N   0  0  0  0  0  0  0  0  0  0  0  0
   -2.8761   -1.3807   -1.7748 C   0  0  0  0  0  0  0  0  0  0  0  0
   -2.8581   -2.0454   -0.7834 C   0  0  0  0  0  0  0  0  0  0  0  0
   -2.7039   -1.6805   -0.4834 C   0  0  0  0  0  0  0  0  0  0  0  0
   -2.4653   -0.4964   -0.8607 C   0  0  0  0  0  0  0  0  0  0  0  0
   -2.5564    0.0357   -2.0945 C   0  0  0  0  0  0  0  0  0  0  0  0
   -2.4005    0.3836   -1.7544 C   0  0  0  0  0  0  0  0  0  0  0  0
   -3.1482   -3.5156   -0.3437 C   0  0  0  0  0  0  0  0  0  0  0  0
   -2.8134   -2.6375    0.5163 C   0  0  0  0  0  0  0  0  0  0  0  0
   -2.0211    3.1454   -3.9703 N   0  0  0  0  0  0  0  0  0  0  0  0
   -2.0104    2.7610   -2.3756 C   0  0  0  0  0  0  0  0  0  0  0  0
   -1.5661    3.0707   -3.6238 C   0  0  0  0  0  0  0  0  0  0  0  0
   -2.1014    4.2808   -3.9237 C   0  0  0  0  0  0  0  0  0  0  0  0
   -1.2594    4.6436   -4.9238 C   0  0  0  0  0  0  0  0  0  0  0  0
   -1.2495    6.1547   -5.3506 C   0  0  0  0  0  0  0  0  0  0  0  0
   -1.0716    7.1031   -4.5063 O   0  0  0  0  0  0  0  0  0  0  0  0
   -1.5698    6.3602   -6.5373 O   0  0  0  0  0  0  0  0  0  0  0  0
  1  2  1  0
  1  9  1  0
  1 13  1  0
  2  3  2  0
  2 12  1  0
  3  8  1  0
  4  5  1  0
  4  8  2  0
  5  6  2  0
  5 10  1  0
  6  7  1  0
  6 11  1  0
  7  9  2  0
  8  9  1  0
 13 14  1  0
 14 15  1  0
 15 16  1  0
 16 17  1  0
 17 18  2  0
 17 19  1  0
M  END
$$$$
1Y0L_lig_H_HAN_1_hfixed.pdb
     RDKit          3D

 19 20  0  0  0  0  0  0  0  0999 V2000
   -1.0296    1.3951   -2.0070 N   0  0  0  0  0  0  0  0  0  0  0  0
   -0.6906    0.8855   -2.3015 C   0  0  0  0  0  0  0  0  0  0  0  0
   -0.8051    1.2778   -1.6357 N   0  0  0  0  0  0  0  0  0  0  0  0
   -1.8345    3.1929    0.3510 C   0  0  0  0  0  0  0  0  0  0  0  0
   -2.3729    4.0288    0.8252 C   0  0  0  0  0  0  0  0  0  0  0  0
   -2.4820    4.0840    0.6129 C   0  0  0  0  0  0  0  0  0  0  0  0
   -2.1376    3.3658   -0.2587 C   0  0  0  0  0  0  0  0  0  0  0  0
   -1.4844    2.3536   -0.7751 C   0  0  0  0  0  0  0  0  0  0  0  0
   -1.5794    2.4177   -0.9435 C   0  0  0  0  0  0  0  0  0  0  0  0
   -2.7741    4.9672    1.9520 C   0  0  0  0  0  0  0  0  0  0  0  0
   -3.0684    5.0837    1.3360 C   0  0  0  0  0  0  0  0  0  0  0  0
   -0.1599   -0.0702   -3.2770 N   0  0  0  0  0  0  0  0  0  0  0  0
   -0.8554    1.1309   -2.5305 C   0  0  0  0  0  0  0  0  0  0  0  0
   -1.0578    2.0694   -2.0663 C   0  0  0  0  0  0  0  0  0  0  0  0
   -1.4649    1.9543   -0.9306 C   0  0  0  0  0  0  0  0  0  0  0  0
   -1.2768    3.1485   -0.6677 C   0  0  0  0  0  0  0  0  0  0  0  0
   -2.3273    3.4569    0.2426 C   0  0  0  0  0  0  0  0  0  0  0  0
   -2.1389    4.3851    0.9359 O   0  0  0  0  0  0  0  0  0  0  0  0
   -3.3899    2.7599    0.3923 O   0  0  0  0  0  0  0  0  0  0  0  0
  1  2  1  0
  1  9  1  0
  1 13  1  0
  2  3  2  0
  2 12  1  0
  3  8  1  0
  4  5  1  0
  4  8  2  0
  5  6  2  0
  5 10  1  0
  6  7  1  0
  6 11  1  0
  7  9  2  0
  8  9  1  0
 13 14  1  0
 14 15  1  0
 15 16  1  0
 16 17  1  0
 17 18  2  0
 17 19  1  0
M  END
$$$$
1Y0L_lig_H_HAN_1_hfixed.pdb
     RDKit          3D

 19 20  0  0  0  0  0  0  0  0999 V2000
   -3.2849    0.7212   -3.1198 N   0  0  0  0  0  0  0  0  0  0  0  0
   -3.0822    1.5754   -3.1621 C   0  0  0  0  0  0  0  0  0  0  0  0
   -3.1752    0.9116   -2.7182 N   0  0  0  0  0  0  0  0  0  0  0  0
   -3.7073   -1.5416   -1.9801 C   0  0  0  0  0  0  0  0  0  0  0  0
   -4.0820   -2.9939   -1.9931 C   0  0  0  0  0  0  0  0  0  0  0  0
   -4.1165   -3.0160   -2.2296 C   0  0  0  0  0  0  0  0  0  0  0  0
   -3.8890   -1.9542   -2.6023 C   0  0  0  0  0  0  0  0  0  0  0  0
   -3.5320   -0.5687   -2.5153 C   0  0  0  0  0  0  0  0  0  0  0  0
   -3.6020   -0.6835   -2.7291 C   0  0  0  0  0  0  0  0  0  0  0  0
   -4.4121   -4.3788   -1.3605 C   0  0  0  0  0  0  0  0  0  0  0  0
   -4.4666   -4.3390   -2.1767 C   0  0  0  0  0  0  0  0  0  0  0  0
   -2.7160    2.9548   -3.5127 N   0  0  0  0  0  0  0  0  0  0  0  0
   -3.2545    1.0053   -3.4537 C   0  0  0  0  0  0  0  0  0  0  0  0
   -2.8248    0.0896   -2.8146 C   0  0  0  0  0  0  0  0  0  0  0  0
   -3.5725   -0.9791   -3.0952 C   0  0  0  0  0  0  0  0  0  0  0  0
   -3.7194   -1.6235   -1.9939 C   0  0  0  0  0  0  0  0  0  0  0  0
   -4.0887   -2.9945   -2.3942 C   0  0  0  0  0  0  0  0  0  0  0  0
   -4.3254   -3.7092   -1.5009 O   0  0  0  0  0  0  0  0  0  0  0  0
   -4.1549   -3.3252   -3.5967 O   0  0  0  0  0  0  0  0  0  0  0  0
  1  2  1  0
  1  9  1  0
  1 13  1  0
  2  3  2  0
  2 12  1  0
  3  8  1  0
  4  5  1  0
  4  8  2  0
  5  6  2  0
  5 10  1  0
  6  7  1  0
  6 11  1  0
  7  9  2  0
  8  9  1  0
 13 14  1  0
 14 15  1  0
 15 16  1  0
 16 17  1  0
 17 18  2  0
 17 19  1  0
M  END
$$$$
1Y0L_lig_H_HAN_1_hfixed.pdb
     RDKit          3D

 19 20  0  0  0  0  0  0  0  0999 V2000
   -1.3203   -0.0456    3.0354 N   0  0  0  0  0  0  0  0  0  0  0  0
   -0.7826   -0.4844    3.6906 C   0  0  0  0  0  0  0  0  0  0  0  0
   -1.2859    0.4039    4.1572 N   0  0  0  0  0  0  0  0  0  0  0  0
   -2.8770    2.3375    3.7868 C   0  0  0  0  0  0  0  0  0  0  0  0
   -3.6909    3.1025    2.7082 C   0  0  0  0  0  0  0  0  0  0  0  0
   -3.7267    2.8457    2.0023 C   0  0  0  0  0  0  0  0  0  0  0  0
   -3.0308    1.8771    1.9567 C   0  0  0  0  0  0  0  0  0  0  0  0
   -2.1710    1.2811    3.3988 C   0  0  0  0  0  0  0  0  0  0  0  0
   -2.2258    1.1012    2.7548 C   0  0  0  0  0  0  0  0  0  0  0  0
   -4.5184    4.4143    3.0350 C   0  0  0  0  0  0  0  0  0  0  0  0
   -4.5976    3.6000    1.1672 C   0  0  0  0  0  0  0  0  0  0  0  0
    0.1073   -1.5791    4.0274 N   0  0  0  0  0  0  0  0  0  0  0  0
   -1.1370   -0.4979    2.5894 C   0  0  0  0  0  0  0  0  0  0  0  0
   -1.5909    0.3354    2.8127 C   0  0  0  0  0  0  0  0  0  0  0  0
   -2.7305    0.8971    2.7706 C   0  0  0  0  0  0  0  0  0  0  0  0
   -2.5375    2.2213    2.6290 C   0  0  0  0  0  0  0  0  0  0  0  0
   -3.7309    2.8591    2.0081 C   0  0  0  0  0  0  0  0  0  0  0  0
   -3.7893    4.0323    2.1556 O   0  0  0  0  0  0  0  0  0  0  0  0
   -4.6212    2.1600    1.4620 O   0  0  0  0  0  0  0  0  0  0  0  0
  1  2  1  0
  1  9  1  0
  1 13  1  0
  2  3  2  0
  2 12  1  0
  3  8  1  0
  4  5  1  0
  4  8  2  0
  5  6  2  0
  5 10  1  0
  6  7  1  0
  6 11  1  0
  7  9  2  0
  8  9  1  0
 13 14  1  0
 14 15  1  0
 15 16  1  0
 16 17  1  0
 17 18  2  0
 17 19  1  0
M  END
$$$$
1Y0L_lig_H_HAN_1_hfixed.pdb
     RDKit          3D

 19 20  0  0  0  0  0  0  0  0999 V2000
    0.5418    0.5595   -1.8767 N   0  0  0  0  0  0  0  0  0  0  0  0
    1.1081   -0.0331   -1.7800 C   0  0  0  0  0  0  0  0  0  0  0  0
    0.9682    0.7257   -2.1610 N   0  0  0  0  0  0  0  0  0  0  0  0
   -0.1144    2.9499   -2.8120 C   0  0  0  0  0  0  0  0  0  0  0  0
   -1.2421    3.9607   -3.0445 C   0  0  0  0  0  0  0  0  0  0  0  0
   -1.5213    3.7978   -2.9149 C   0  0  0  0  0  0  0  0  0  0  0  0
   -1.0749    2.7821   -2.5405 C   0  0  0  0  0  0  0  0  0  0  0  0
    0.0371    1.8872   -2.3898 C   0  0  0  0  0  0  0  0  0  0  0  0
   -0.2165    1.8266   -2.2693 C   0  0  0  0  0  0  0  0  0  0  0  0
   -1.6620    5.3664   -3.6602 C   0  0  0  0  0  0  0  0  0  0  0  0
   -2.4546    4.7685   -3.2018 C   0  0  0  0  0  0  0  0  0  0  0  0
    1.8596   -1.2107   -1.3816 N   0  0  0  0  0  0  0  0  0  0  0  0
    0.6657    0.0458   -1.6150 C   0  0  0  0  0  0  0  0  0  0  0  0
    0.6650    0.5875   -1.8456 C   0  0  0  0  0  0  0  0  0  0  0  0
    0.0463    1.7012   -1.7982 C   0  0  0  0  0  0  0  0  0  0  0  0
   -0.8377    1.9844   -2.3949 C   0  0  0  0  0  0  0  0  0  0  0  0
   -1.0016    3.2541   -2.7841 C   0  0  0  0  0  0  0  0  0  0  0  0
   -1.9468    3.8032   -2.9201 O   0  0  0  0  0  0  0  0  0  0  0  0
    0.1214    3.9032   -2.9197 O   0  0  0  0  0  0  0  0  0  0  0  0
  1  2  1  0
  1  9  1  0
  1 13  1  0
  2  3  2  0
  2 12  1  0
  3  8  1  0
  4  5  1  0
  4  8  2  0
  5  6  2  0
  5 10  1  0
  6  7  1  0
  6 11  1  0
  7  9  2  0
  8  9  1  0
 13 14  1  0
 14 15  1  0
 15 16  1  0
 16 17  1  0
 17 18  2  0
 17 19  1  0
M  END
$$$$
1Y0L_lig_H_HAN_1_hfixed.pdb
     RDKit          3D

 19 20  0  0  0  0  0  0  0  0999 V2000
   -1.2511   -2.1335    0.8003 N   0  0  0  0  0  0  0  0  0  0  0  0
   -2.0543   -1.9587    0.3617 C   0  0  0  0  0  0  0  0  0  0  0  0
   -1.3008   -2.0817   -0.1402 N   0  0  0  0  0  0  0  0  0  0  0  0
    1.3098   -2.5567   -0.3133 C   0  0  0  0  0  0  0  0  0  0  0  0
    2.7297   -2.7471    0.2450 C   0  0  0  0  0  0  0  0  0  0  0  0
    2.6378   -2.7161    0.6357 C   0  0  0  0  0  0  0  0  0  0  0  0
    1.4464   -2.5450    0.9112 C   0  0  0  0  0  0  0  0  0  0  0  0
    0.1937   -2.3468    0.1901 C   0  0  0  0  0  0  0  0  0  0  0  0
    0.2000   -2.3333    0.6461 C   0  0  0  0  0  0  0  0  0  0  0  0
    4.2021   -2.9782   -0.1221 C   0  0  0  0  0  0  0  0  0  0  0  0
    3.9688   -2.9768    0.9462 C   0  0  0  0  0  0  0  0  0  0  0  0
   -3.4908   -1.6883    0.2496 N   0  0  0  0  0  0  0  0  0  0  0  0
   -1.9454   -2.1081    1.3433 C   0  0  0  0  0  0  0  0  0  0  0  0
   -3.0933   -1.6036    0.3381 C   0  0  0  0  0  0  0  0  0  0  0  0
   -4.3059   -1.8962    0.9047 C   0  0  0  0  0  0  0  0  0  0  0  0
   -5.3092   -2.1214    0.3151 C   0  0  0  0  0  0  0  0  0  0  0  0
   -6.4053   -0.9610    0.3974 C   0  0  0  0  0  0  0  0  0  0  0  0
   -7.5804   -1.4486    0.4900 O   0  0  0  0  0  0  0  0  0  0  0  0
   -6.1030    0.2971    0.4051 O   0  0  0  0  0  0  0  0  0  0  0  0
  1  2  1  0
  1  9  1  0
  1 13  1  0
  2  3  2  0
  2 12  1  0
  3  8  1  0
  4  5  1  0
  4  8  2  0
  5  6  2  0
  5 10  1  0
  6  7  1  0
  6 11  1  0
  7  9  2  0
  8  9  1  0
 13 14  1  0
 14 15  1  0
 15 16  1  0
 16 17  1  0
 17 18  2  0
 17 19  1  0
M  END
$$$$
1Y0L_lig_H_HAN_1_hfixed.pdb
     RDKit          3D

 19 20  0  0  0  0  0  0  0  0999 V2000
   -1.6657   -0.6673   -1.4159 N   0  0  0  0  0  0  0  0  0  0  0  0
   -2.3699   -1.0426   -1.3647 C   0  0  0  0  0  0  0  0  0  0  0  0
   -1.7788   -0.6101   -1.6176 N   0  0  0  0  0  0  0  0  0  0  0  0
    0.4990    0.8594   -2.0806 C   0  0  0  0  0  0  0  0  0  0  0  0
    1.6232    1.4272   -2.3700 C   0  0  0  0  0  0  0  0  0  0  0  0
    1.5825    1.3770   -2.3660 C   0  0  0  0  0  0  0  0  0  0  0  0
    0.6416    0.7500   -2.0795 C   0  0  0  0  0  0  0  0  0  0  0  0
   -0.5015    0.1350   -1.8383 C   0  0  0  0  0  0  0  0  0  0  0  0
   -0.4055    0.0941   -1.7818 C   0  0  0  0  0  0  0  0  0  0  0  0
    2.8704    2.2306   -2.6754 C   0  0  0  0  0  0  0  0  0  0  0  0
    2.7310    2.0930   -2.7543 C   0  0  0  0  0  0  0  0  0  0  0  0
   -3.6323   -1.7922   -1.1625 N   0  0  0  0  0  0  0  0  0  0  0  0
   -1.9768   -0.9273   -1.1042 C   0  0  0  0  0  0  0  0  0  0  0  0
   -1.3762   -0.5159   -1.9080 C   0  0  0  0  0  0  0  0  0  0  0  0
   -0.4112    0.0856   -1.9598 C   0  0  0  0  0  0  0  0  0  0  0  0
    0.1027    0.8433   -1.3830 C   0  0  0  0  0  0  0  0  0  0  0  0
    1.1921    1.0513   -2.3225 C   0  0  0  0  0  0  0  0  0  0  0  0
    1.2517    0.2667   -3.3857 O   0  0  0  0  0  0  0  0  0  0  0  0
    1.9659    1.9296   -2.1222 O   0  0  0  0  0  0  0  0  0  0  0  0
  1  2  1  0
  1  9  1  0
  1 13  1  0
  2  3  2  0
  2 12  1  0
  3  8  1  0
  4  5  1  0
  4  8  2  0
  5  6  2  0
  5 10  1  0
  6  7  1  0
  6 11  1  0
  7  9  2  0
  8  9  1  0
 13 14  1  0
 14 15  1  0
 15 16  1  0
 16 17  1  0
 17 18  2  0
 17 19  1  0
M  END
$$$$
1Y0L_lig_H_HAN_1_hfixed.pdb
     RDKit          3D

 19 20  0  0  0  0  0  0  0  0999 V2000
   -2.2648    3.0920   -0.1430 N   0  0  0  0  0  0  0  0  0  0  0  0
   -2.2408    2.3553    0.5072 C   0  0  0  0  0  0  0  0  0  0  0  0
   -1.6273    2.7057    0.0668 N   0  0  0  0  0  0  0  0  0  0  0  0
   -0.6588    4.4421   -1.7481 C   0  0  0  0  0  0  0  0  0  0  0  0
   -0.6233    5.4229   -2.7181 C   0  0  0  0  0  0  0  0  0  0  0  0
   -0.9293    5.4923   -2.8047 C   0  0  0  0  0  0  0  0  0  0  0  0
   -1.4827    4.8624   -2.0708 C   0  0  0  0  0  0  0  0  0  0  0  0
   -1.4000    3.7465   -0.9774 C   0  0  0  0  0  0  0  0  0  0  0  0
   -1.7061    3.9558   -1.1091 C   0  0  0  0  0  0  0  0  0  0  0  0
    0.0985    6.3251   -3.5967 C   0  0  0  0  0  0  0  0  0  0  0  0
   -0.7751    6.4641   -3.8254 C   0  0  0  0  0  0  0  0  0  0  0  0
   -2.6934    1.3933    1.4960 N   0  0  0  0  0  0  0  0  0  0  0  0
   -2.6020    3.2044   -0.0596 C   0  0  0  0  0  0  0  0  0  0  0  0
   -1.3351    3.5174   -0.9694 C   0  0  0  0  0  0  0  0  0  0  0  0
   -1.7469    4.6079   -1.7896 C   0  0  0  0  0  0  0  0  0  0  0  0
   -0.5780    4.9260   -2.3846 C   0  0  0  0  0  0  0  0  0  0  0  0
   -0.5858    5.8955   -3.4568 C   0  0  0  0  0  0  0  0  0  0  0  0
   -0.3754    7.0509   -3.1279 O   0  0  0  0  0  0  0  0  0  0  0  0
   -0.8666    5.5137   -4.5841 O   0  0  0  0  0  0  0  0  0  0  0  0
  1  2  1  0
  1  9  1  0
  1 13  1  0
  2  3  2  0
  2 12  1  0
  3  8  1  0
  4  5  1  0
  4  8  2  0
  5  6  2  0
  5 10  1  0
  6  7  1  0
  6 11  1  0
  7  9  2  0
  8  9  1  0
 13 14  1  0
 14 15  1  0
 15 16  1  0
 16 17  1  0
 17 18  2  0
 17 19  1  0
M  END
$$$$
1Y0L_lig_H_HAN_1_hfixed.pdb
     RDKit          3D

 19 20  0  0  0  0  0  0  0  0999 V2000
    1.7700    0.1219    3.0324 N   0  0  0  0  0  0  0  0  0  0  0  0
    2.3025    0.4610    3.5004 C   0  0  0  0  0  0  0  0  0  0  0  0
    1.9318    0.0617    3.0592 N   0  0  0  0  0  0  0  0  0  0  0  0
    0.1704   -1.4131    1.2409 C   0  0  0  0  0  0  0  0  0  0  0  0
   -0.5949   -1.7811    0.3505 C   0  0  0  0  0  0  0  0  0  0  0  0
   -0.5249   -1.5542    0.3517 C   0  0  0  0  0  0  0  0  0  0  0  0
    0.1550   -0.9498    1.1303 C   0  0  0  0  0  0  0  0  0  0  0  0
    0.9444   -0.6393    2.0092 C   0  0  0  0  0  0  0  0  0  0  0  0
    0.9271   -0.4759    2.0083 C   0  0  0  0  0  0  0  0  0  0  0  0
   -1.4253   -2.6196   -0.5016 C   0  0  0  0  0  0  0  0  0  0  0  0
   -1.3491   -2.0240   -0.5998 C   0  0  0  0  0  0  0  0  0  0  0  0
    3.1840    1.2152    4.4253 N   0  0  0  0  0  0  0  0  0  0  0  0
    2.0891    0.5704    3.8429 C   0  0  0  0  0  0  0  0  0  0  0  0
    2.8566    1.6320    3.9777 C   0  0  0  0  0  0  0  0  0  0  0  0
    3.3307    1.7417    5.2302 C   0  0  0  0  0  0  0  0  0  0  0  0
    4.3783    2.6014    5.1772 C   0  0  0  0  0  0  0  0  0  0  0  0
    5.1576    2.8529    6.5453 C   0  0  0  0  0  0  0  0  0  0  0  0
    5.6709    3.8383    6.9221 O   0  0  0  0  0  0  0  0  0  0  0  0
    5.0791    1.7611    7.3124 O   0  0  0  0  0  0  0  0  0  0  0  0
  1  2  1  0
  1  9  1  0
  1 13  1  0
  2  3  2  0
  2 12  1  0
  3  8  1  0
  4  5  1  0
  4  8  2  0
  5  6  2  0
  5 10  1  0
  6  7  1  0
  6 11  1  0
  7  9  2  0
  8  9  1  0
 13 14  1  0
 14 15  1  0
 15 16  1  0
 16 17  1  0
 17 18  2  0
 17 19  1  0
M  END
$$$$
1Y0L_lig_H_HAN_1_hfixed.pdb
     RDKit          3D

 19 20  0  0  0  0  0  0  0  0999 V2000
   -4.0498   -1.2055   -0.3538 N   0  0  0  0  0  0  0  0  0  0  0  0
   -3.5173   -1.8903   -1.0487 C   0  0  0  0  0  0  0  0  0  0  0  0
   -3.3089   -0.9082   -1.6121 N   0  0  0  0  0  0  0  0  0  0  0  0
   -3.7273    1.6618   -1.4431 C   0  0  0  0  0  0  0  0  0  0  0  0
   -4.3342    2.6751   -0.6050 C   0  0  0  0  0  0  0  0  0  0  0  0
   -4.7632    2.4572    0.1152 C   0  0  0  0  0  0  0  0  0  0  0  0
   -4.7755    1.2273    0.3622 C   0  0  0  0  0  0  0  0  0  0  0  0
   -3.8003    0.3159   -1.0336 C   0  0  0  0  0  0  0  0  0  0  0  0
   -4.2401    0.1758   -0.2932 C   0  0  0  0  0  0  0  0  0  0  0  0
   -4.2709    4.1482   -0.9361 C   0  0  0  0  0  0  0  0  0  0  0  0
   -5.3865    3.5332    0.8402 C   0  0  0  0  0  0  0  0  0  0  0  0
   -3.1841   -3.2922   -1.3287 N   0  0  0  0  0  0  0  0  0  0  0  0
   -4.3015   -1.5251    0.0653 C   0  0  0  0  0  0  0  0  0  0  0  0
   -4.0708   -0.5486   -0.9850 C   0  0  0  0  0  0  0  0  0  0  0  0
   -3.5569    0.5003   -0.2866 C   0  0  0  0  0  0  0  0  0  0  0  0
   -4.5273    1.3446   -0.5482 C   0  0  0  0  0  0  0  0  0  0  0  0
   -4.5504    2.5132    0.1150 C   0  0  0  0  0  0  0  0  0  0  0  0
   -4.7230    2.5673    1.2769 O   0  0  0  0  0  0  0  0  0  0  0  0
   -4.3823    3.4562   -0.6714 O   0  0  0  0  0  0  0  0  0  0  0  0
  1  2  1  0
  1  9  1  0
  1 13  1  0
  2  3  2  0
  2 12  1  0
  3  8  1  0
  4  5  1  0
  4  8  2  0
  5  6  2  0
  5 10  1  0
  6  7  1  0
  6 11  1  0
  7  9  2  0
  8  9  1  0
 13 14  1  0
 14 15  1  0
 15 16  1  0
 16 17  1  0
 17 18  2  0
 17 19  1  0
M  END
$$$$
1Y0L_lig_H_HAN_1_hfixed.pdb
     RDKit          3D

 19 20  0  0  0  0  0  0  0  0999 V2000
   -2.0776   -4.1996    1.2551 N   0  0  0  0  0  0  0  0  0  0  0  0
   -2.3165   -4.0889    0.0356 C   0  0  0  0  0  0  0  0  0  0  0  0
   -3.5886   -3.9615    0.1578 N   0  0  0  0  0  0  0  0  0  0  0  0
   -5.2986   -3.9617    2.0355 C   0  0  0  0  0  0  0  0  0  0  0  0
   -5.4204   -4.1198    3.4491 C   0  0  0  0  0  0  0  0  0  0  0  0
   -4.5175   -4.3222    4.1669 C   0  0  0  0  0  0  0  0  0  0  0  0
   -3.3107   -4.3745    3.6284 C   0  0  0  0  0  0  0  0  0  0  0  0
   -4.0235   -4.0387    1.5350 C   0  0  0  0  0  0  0  0  0  0  0  0
   -3.1552   -4.1935    2.2091 C   0  0  0  0  0  0  0  0  0  0  0  0
   -6.8780   -4.0349    4.0292 C   0  0  0  0  0  0  0  0  0  0  0  0
   -4.7319   -4.5384    5.6235 C   0  0  0  0  0  0  0  0  0  0  0  0
   -1.5120   -4.0929   -1.1549 N   0  0  0  0  0  0  0  0  0  0  0  0
   -1.1093   -4.3144    1.6611 C   0  0  0  0  0  0  0  0  0  0  0  0
   -1.5937   -4.9691    2.3112 C   0  0  0  0  0  0  0  0  0  0  0  0
   -2.8874   -4.8085    2.8289 C   0  0  0  0  0  0  0  0  0  0  0  0
   -3.0023   -3.6810    3.7582 C   0  0  0  0  0  0  0  0  0  0  0  0
   -4.1906   -4.1308    4.6587 C   0  0  0  0  0  0  0  0  0  0  0  0
   -3.8983   -4.4991    5.7835 O   0  0  0  0  0  0  0  0  0  0  0  0
   -5.2828   -4.2037    4.1267 O   0  0  0  0  0  0  0  0  0  0  0  0
  1  2  1  0
  1  9  1  0
  1 13  1  0
  2  3  2  0
  2 12  1  0
  3  8  1  0
  4  5  1  0
  4  8  2  0
  5  6  2  0
  5 10  1  0
  6  7  1  0
  6 11  1  0
  7  9  2  0
  8  9  1  0
 13 14  1  0
 14 15  1  0
 15 16  1  0
 16 17  1  0
 17 18  2  0
 17 19  1  0
M  END
$$$$
1Y0L_lig_H_HAN_1_hfixed.pdb
     RDKit          3D

 19 20  0  0  0  0  0  0  0  0999 V2000
   -1.6227    2.3136    0.5216 N   0  0  0  0  0  0  0  0  0  0  0  0
   -2.1495    1.8195    0.4734 C   0  0  0  0  0  0  0  0  0  0  0  0
   -1.5052    2.2077    0.6099 N   0  0  0  0  0  0  0  0  0  0  0  0
    0.7176    3.7582    1.0648 C   0  0  0  0  0  0  0  0  0  0  0  0
    1.7468    4.5489    1.2441 C   0  0  0  0  0  0  0  0  0  0  0  0
    1.7004    4.5582    1.1923 C   0  0  0  0  0  0  0  0  0  0  0  0
    0.7496    3.9583    0.9401 C   0  0  0  0  0  0  0  0  0  0  0  0
   -0.2782    3.1141    0.8057 C   0  0  0  0  0  0  0  0  0  0  0  0
   -0.3127    3.1710    0.7584 C   0  0  0  0  0  0  0  0  0  0  0  0
    2.9742    5.4552    1.5288 C   0  0  0  0  0  0  0  0  0  0  0  0
    2.8250    5.3412    1.4448 C   0  0  0  0  0  0  0  0  0  0  0  0
   -3.3459    1.0159    0.2434 N   0  0  0  0  0  0  0  0  0  0  0  0
   -2.4881    1.9872    0.2633 C   0  0  0  0  0  0  0  0  0  0  0  0
   -2.2464    1.9726   -0.2186 C   0  0  0  0  0  0  0  0  0  0  0  0
   -1.3282    1.9305    0.3940 C   0  0  0  0  0  0  0  0  0  0  0  0
   -0.9027    2.8381    0.4518 C   0  0  0  0  0  0  0  0  0  0  0  0
   -1.3220    2.7909    0.7396 C   0  0  0  0  0  0  0  0  0  0  0  0
   -0.6192    3.5903    1.5840 O   0  0  0  0  0  0  0  0  0  0  0  0
   -2.5249    2.0055    0.6009 O   0  0  0  0  0  0  0  0  0  0  0  0
  1  2  1  0
  1  9  1  0
  1 13  1  0
  2  3  2  0
  2 12  1  0
  3  8  1  0
  4  5  1  0
  4  8  2  0
  5  6  2  0
  5 10  1  0
  6  7  1  0
  6 11  1  0
  7  9  2  0
  8  9  1  0
 13 14  1  0
 14 15  1  0
 15 16  1  0
 16 17  1  0
 17 18  2  0
 17 19  1  0
M  END
$$$$
1Y0L_lig_H_HAN_1_hfixed.pdb
     RDKit          3D

 19 20  0  0  0  0  0  0  0  0999 V2000
   -5.1210   -0.4365   -1.9915 N   0  0  0  0  0  0  0  0  0  0  0  0
   -4.6758   -0.2057   -2.9181 C   0  0  0  0  0  0  0  0  0  0  0  0
   -3.7679   -0.4066   -2.3465 N   0  0  0  0  0  0  0  0  0  0  0  0
   -2.7973   -1.1767   -0.0270 C   0  0  0  0  0  0  0  0  0  0  0  0
   -3.2043   -1.5284    1.3907 C   0  0  0  0  0  0  0  0  0  0  0  0
   -3.9327   -1.5148    1.5740 C   0  0  0  0  0  0  0  0  0  0  0  0
   -4.6662   -1.1778    0.6049 C   0  0  0  0  0  0  0  0  0  0  0  0
   -3.8017   -0.8329   -0.9193 C   0  0  0  0  0  0  0  0  0  0  0  0
   -4.5279   -0.8454   -0.6978 C   0  0  0  0  0  0  0  0  0  0  0  0
   -2.2505   -1.9445    2.5571 C   0  0  0  0  0  0  0  0  0  0  0  0
   -4.1655   -1.8842    2.9597 C   0  0  0  0  0  0  0  0  0  0  0  0
   -5.0636    0.2333   -4.2863 N   0  0  0  0  0  0  0  0  0  0  0  0
   -6.0111   -0.2239   -2.3069 C   0  0  0  0  0  0  0  0  0  0  0  0
   -5.3823    0.1901   -3.0797 C   0  0  0  0  0  0  0  0  0  0  0  0
   -4.6513   -0.8157   -2.7623 C   0  0  0  0  0  0  0  0  0  0  0  0
   -5.2442   -1.2798   -1.5138 C   0  0  0  0  0  0  0  0  0  0  0  0
   -4.2654   -0.9097   -0.5341 C   0  0  0  0  0  0  0  0  0  0  0  0
   -4.5667   -1.4261    0.5186 O   0  0  0  0  0  0  0  0  0  0  0  0
   -3.2097   -0.2605   -0.7086 O   0  0  0  0  0  0  0  0  0  0  0  0
  1  2  1  0
  1  9  1  0
  1 13  1  0
  2  3  2  0
  2 12  1  0
  3  8  1  0
  4  5  1  0
  4  8  2  0
  5  6  2  0
  5 10  1  0
  6  7  1  0
  6 11  1  0
  7  9  2  0
  8  9  1  0
 13 14  1  0
 14 15  1  0
 15 16  1  0
 16 17  1  0
 17 18  2  0
 17 19  1  0
M  END
$$$$
1Y0L_lig_H_HAN_1_hfixed.pdb
     RDKit          3D

 19 20  0  0  0  0  0  0  0  0999 V2000
   -2.1075    0.5342   -2.8372 N   0  0  0  0  0  0  0  0  0  0  0  0
   -2.9218    0.5115   -1.7816 C   0  0  0  0  0  0  0  0  0  0  0  0
   -3.6129   -0.2529   -2.2186 N   0  0  0  0  0  0  0  0  0  0  0  0
   -3.5482   -1.3796   -4.3920 C   0  0  0  0  0  0  0  0  0  0  0  0
   -2.8126   -1.4538   -5.5432 C   0  0  0  0  0  0  0  0  0  0  0  0
   -1.7911   -0.9375   -5.8525 C   0  0  0  0  0  0  0  0  0  0  0  0
   -1.4377   -0.2332   -5.0245 C   0  0  0  0  0  0  0  0  0  0  0  0
   -3.0825   -0.5852   -3.5050 C   0  0  0  0  0  0  0  0  0  0  0  0
   -2.1767   -0.0999   -3.8078 C   0  0  0  0  0  0  0  0  0  0  0  0
   -3.4792   -2.4443   -6.6182 C   0  0  0  0  0  0  0  0  0  0  0  0
   -1.0764   -1.1130   -7.1158 C   0  0  0  0  0  0  0  0  0  0  0  0
   -3.1043    1.0521   -0.5865 N   0  0  0  0  0  0  0  0  0  0  0  0
   -1.3603    0.8537   -3.3246 C   0  0  0  0  0  0  0  0  0  0  0  0
   -1.5850    0.0473   -4.6474 C   0  0  0  0  0  0  0  0  0  0  0  0
   -1.3698   -0.5607   -5.6251 C   0  0  0  0  0  0  0  0  0  0  0  0
   -0.2983   -0.3628   -6.3738 C   0  0  0  0  0  0  0  0  0  0  0  0
   -0.3623   -0.9425   -7.8979 C   0  0  0  0  0  0  0  0  0  0  0  0
   -0.8043   -2.1000   -8.0905 O   0  0  0  0  0  0  0  0  0  0  0  0
    0.0193   -0.1878   -8.7573 O   0  0  0  0  0  0  0  0  0  0  0  0
  1  2  1  0
  1  9  1  0
  1 13  1  0
  2  3  2  0
  2 12  1  0
  3  8  1  0
  4  5  1  0
  4  8  2  0
  5  6  2  0
  5 10  1  0
  6  7  1  0
  6 11  1  0
  7  9  2  0
  8  9  1  0
 13 14  1  0
 14 15  1  0
 15 16  1  0
 16 17  1  0
 17 18  2  0
 17 19  1  0
M  END
$$$$
