1Y0L_lig_H_HAN_1_hfixed.pdb
     RDKit          3D

 19 20  0  0  0  0  0  0  0  0999 V2000
   -2.2130    1.7171   -2.4351 N   0  0  0  0  0  0  0  0  0  0  0  0
   -2.2389    2.0003   -3.1157 C   0  0  0  0  0  0  0  0  0  0  0  0
   -2.4668    1.1213   -3.2149 N   0  0  0  0  0  0  0  0  0  0  0  0
   -2.8761   -1.3807   -1.7748 C   0  0  0  0  0  0  0  0  0  0  0  0
   -2.8581   -2.0454   -0.7834 C   0  0  0  0  0  0  0  0  0  0  0  0
   -2.7039   -1.6805   -0.4834 C   0  0  0  0  0  0  0  0  0  0  0  0
   -2.4653   -0.4964   -0.8607 C   0  0  0  0  0  0  0  0  0  0  0  0
   -2.5564    0.0357   -2.0945 C   0  0  0  0  0  0  0  0  0  0  0  0
   -2.4005    0.3836   -1.7544 C   0  0  0  0  0  0  0  0  0  0  0  0
   -3.1482   -3.5156   -0.3437 C   0  0  0  0  0  0  0  0  0  0  0  0
   -2.8134   -2.6375    0.5163 C   0  0  0  0  0  0  0  0  0  0  0  0
   -2.0211    3.1454   -3.9703 N   0  0  0  0  0  0  0  0  0  0  0  0
   -2.0104    2.7610   -2.3756 C   0  0  0  0  0  0  0  0  0  0  0  0
   -1.5661    3.0707   -3.6238 C   0  0  0  0  0  0  0  0  0  0  0  0
   -2.1014    4.2808   -3.9237 C   0  0  0  0  0  0  0  0  0  0  0  0
   -1.2594    4.6436   -4.9238 C   0  0  0  0  0  0  0  0  0  0  0  0
   -1.2495    6.1547   -5.3506 C   0  0  0  0  0  0  0  0  0  0  0  0
   -1.0716    7.1031   -4.5063 O   0  0  0  0  0  0  0  0  0  0  0  0
   -1.5698    6.3602   -6.5373 O   0  0  0  0  0  0  0  0  0  0  0  0
  1  2  1  0
  1  9  1  0
  1 13  1  0
  2  3  2  0
  2 12  1  0
  3  8  1  0
  4  5  1  0
  4  8  2  0
  5  6  2  0
  5 10  1  0
  6  7  1  0
  6 11  1  0
  7  9  2  0
  8  9  1  0
 13 14  1  0
 14 15  1  0
 15 16  1  0
 16 17  1  0
 17 18  2  0
 17 19  1  0
M  END
$$$$
