1Y0L_lig_H_HAN_1_hfixed.pdb
     RDKit          3D

 19 20  0  0  0  0  0  0  0  0999 V2000
   -2.2648    3.0920   -0.1430 N   0  0  0  0  0  0  0  0  0  0  0  0
   -2.2408    2.3553    0.5072 C   0  0  0  0  0  0  0  0  0  0  0  0
   -1.6273    2.7057    0.0668 N   0  0  0  0  0  0  0  0  0  0  0  0
   -0.6588    4.4421   -1.7481 C   0  0  0  0  0  0  0  0  0  0  0  0
   -0.6233    5.4229   -2.7181 C   0  0  0  0  0  0  0  0  0  0  0  0
   -0.9293    5.4923   -2.8047 C   0  0  0  0  0  0  0  0  0  0  0  0
   -1.4827    4.8624   -2.0708 C   0  0  0  0  0  0  0  0  0  0  0  0
   -1.4000    3.7465   -0.9774 C   0  0  0  0  0  0  0  0  0  0  0  0
   -1.7061    3.9558   -1.1091 C   0  0  0  0  0  0  0  0  0  0  0  0
    0.0985    6.3251   -3.5967 C   0  0  0  0  0  0  0  0  0  0  0  0
   -0.7751    6.4641   -3.8254 C   0  0  0  0  0  0  0  0  0  0  0  0
   -2.6934    1.3933    1.4960 N   0  0  0  0  0  0  0  0  0  0  0  0
   -2.6020    3.2044   -0.0596 C   0  0  0  0  0  0  0  0  0  0  0  0
   -1.3351    3.5174   -0.9694 C   0  0  0  0  0  0  0  0  0  0  0  0
   -1.7469    4.6079   -1.7896 C   0  0  0  0  0  0  0  0  0  0  0  0
   -0.5780    4.9260   -2.3846 C   0  0  0  0  0  0  0  0  0  0  0  0
   -0.5858    5.8955   -3.4568 C   0  0  0  0  0  0  0  0  0  0  0  0
   -0.3754    7.0509   -3.1279 O   0  0  0  0  0  0  0  0  0  0  0  0
   -0.8666    5.5137   -4.5841 O   0  0  0  0  0  0  0  0  0  0  0  0
  1  2  1  0
  1  9  1  0
  1 13  1  0
  2  3  2  0
  2 12  1  0
  3  8  1  0
  4  5  1  0
  4  8  2  0
  5  6  2  0
  5 10  1  0
  6  7  1  0
  6 11  1  0
  7  9  2  0
  8  9  1  0
 13 14  1  0
 14 15  1  0
 15 16  1  0
 16 17  1  0
 17 18  2  0
 17 19  1  0
M  END
$$$$
