1Y0L_lig_H_HAN_1_hfixed.pdb
     RDKit          3D

 19 20  0  0  0  0  0  0  0  0999 V2000
   -5.1210   -0.4365   -1.9915 N   0  0  0  0  0  0  0  0  0  0  0  0
   -4.6758   -0.2057   -2.9181 C   0  0  0  0  0  0  0  0  0  0  0  0
   -3.7679   -0.4066   -2.3465 N   0  0  0  0  0  0  0  0  0  0  0  0
   -2.7973   -1.1767   -0.0270 C   0  0  0  0  0  0  0  0  0  0  0  0
   -3.2043   -1.5284    1.3907 C   0  0  0  0  0  0  0  0  0  0  0  0
   -3.9327   -1.5148    1.5740 C   0  0  0  0  0  0  0  0  0  0  0  0
   -4.6662   -1.1778    0.6049 C   0  0  0  0  0  0  0  0  0  0  0  0
   -3.8017   -0.8329   -0.9193 C   0  0  0  0  0  0  0  0  0  0  0  0
   -4.5279   -0.8454   -0.6978 C   0  0  0  0  0  0  0  0  0  0  0  0
   -2.2505   -1.9445    2.5571 C   0  0  0  0  0  0  0  0  0  0  0  0
   -4.1655   -1.8842    2.9597 C   0  0  0  0  0  0  0  0  0  0  0  0
   -5.0636    0.2333   -4.2863 N   0  0  0  0  0  0  0  0  0  0  0  0
   -6.0111   -0.2239   -2.3069 C   0  0  0  0  0  0  0  0  0  0  0  0
   -5.3823    0.1901   -3.0797 C   0  0  0  0  0  0  0  0  0  0  0  0
   -4.6513   -0.8157   -2.7623 C   0  0  0  0  0  0  0  0  0  0  0  0
   -5.2442   -1.2798   -1.5138 C   0  0  0  0  0  0  0  0  0  0  0  0
   -4.2654   -0.9097   -0.5341 C   0  0  0  0  0  0  0  0  0  0  0  0
   -4.5667   -1.4261    0.5186 O   0  0  0  0  0  0  0  0  0  0  0  0
   -3.2097   -0.2605   -0.7086 O   0  0  0  0  0  0  0  0  0  0  0  0
  1  2  1  0
  1  9  1  0
  1 13  1  0
  2  3  2  0
  2 12  1  0
  3  8  1  0
  4  5  1  0
  4  8  2  0
  5  6  2  0
  5 10  1  0
  6  7  1  0
  6 11  1  0
  7  9  2  0
  8  9  1  0
 13 14  1  0
 14 15  1  0
 15 16  1  0
 16 17  1  0
 17 18  2  0
 17 19  1  0
M  END
$$$$
