1Y0L_lig_H_HAN_1_hfixed.pdb
     RDKit          3D

 19 20  0  0  0  0  0  0  0  0999 V2000
   -4.4552   -1.6587   -4.0320 N   0  0  0  0  0  0  0  0  0  0  0  0
   -5.0100   -1.7319   -4.4484 C   0  0  0  0  0  0  0  0  0  0  0  0
   -4.5641   -1.5931   -3.9301 N   0  0  0  0  0  0  0  0  0  0  0  0
   -2.4264   -1.2917   -2.0392 C   0  0  0  0  0  0  0  0  0  0  0  0
   -1.4039   -1.2207   -1.3093 C   0  0  0  0  0  0  0  0  0  0  0  0
   -1.4541   -1.3119   -1.4673 C   0  0  0  0  0  0  0  0  0  0  0  0
   -2.3319   -1.4779   -2.2946 C   0  0  0  0  0  0  0  0  0  0  0  0
   -3.3687   -1.5004   -2.9772 C   0  0  0  0  0  0  0  0  0  0  0  0
   -3.3530   -1.5374   -3.0666 C   0  0  0  0  0  0  0  0  0  0  0  0
   -0.3550   -0.8701   -0.2860 C   0  0  0  0  0  0  0  0  0  0  0  0
   -0.3395   -1.2912   -0.6154 C   0  0  0  0  0  0  0  0  0  0  0  0
   -6.1686   -1.8223   -5.3814 N   0  0  0  0  0  0  0  0  0  0  0  0
   -5.0566   -1.7688   -4.7031 C   0  0  0  0  0  0  0  0  0  0  0  0
   -5.9873   -1.5162   -5.1610 C   0  0  0  0  0  0  0  0  0  0  0  0
   -6.7088   -2.2086   -5.6960 C   0  0  0  0  0  0  0  0  0  0  0  0
   -6.8973   -1.7287   -6.8316 C   0  0  0  0  0  0  0  0  0  0  0  0
   -8.4239   -1.9823   -7.3161 C   0  0  0  0  0  0  0  0  0  0  0  0
   -8.6769   -2.4933   -8.3749 O   0  0  0  0  0  0  0  0  0  0  0  0
   -9.3034   -1.6806   -6.3354 O   0  0  0  0  0  0  0  0  0  0  0  0
  1  2  1  0
  1  9  1  0
  1 13  1  0
  2  3  2  0
  2 12  1  0
  3  8  1  0
  4  5  1  0
  4  8  2  0
  5  6  2  0
  5 10  1  0
  6  7  1  0
  6 11  1  0
  7  9  2  0
  8  9  1  0
 13 14  1  0
 14 15  1  0
 15 16  1  0
 16 17  1  0
 17 18  2  0
 17 19  1  0
M  END
$$$$
