1Y0L_lig_H_HAN_1_hfixed.pdb
     RDKit          3D

 19 20  0  0  0  0  0  0  0  0999 V2000
   -1.6227    2.3136    0.5216 N   0  0  0  0  0  0  0  0  0  0  0  0
   -2.1495    1.8195    0.4734 C   0  0  0  0  0  0  0  0  0  0  0  0
   -1.5052    2.2077    0.6099 N   0  0  0  0  0  0  0  0  0  0  0  0
    0.7176    3.7582    1.0648 C   0  0  0  0  0  0  0  0  0  0  0  0
    1.7468    4.5489    1.2441 C   0  0  0  0  0  0  0  0  0  0  0  0
    1.7004    4.5582    1.1923 C   0  0  0  0  0  0  0  0  0  0  0  0
    0.7496    3.9583    0.9401 C   0  0  0  0  0  0  0  0  0  0  0  0
   -0.2782    3.1141    0.8057 C   0  0  0  0  0  0  0  0  0  0  0  0
   -0.3127    3.1710    0.7584 C   0  0  0  0  0  0  0  0  0  0  0  0
    2.9742    5.4552    1.5288 C   0  0  0  0  0  0  0  0  0  0  0  0
    2.8250    5.3412    1.4448 C   0  0  0  0  0  0  0  0  0  0  0  0
   -3.3459    1.0159    0.2434 N   0  0  0  0  0  0  0  0  0  0  0  0
   -2.4881    1.9872    0.2633 C   0  0  0  0  0  0  0  0  0  0  0  0
   -2.2464    1.9726   -0.2186 C   0  0  0  0  0  0  0  0  0  0  0  0
   -1.3282    1.9305    0.3940 C   0  0  0  0  0  0  0  0  0  0  0  0
   -0.9027    2.8381    0.4518 C   0  0  0  0  0  0  0  0  0  0  0  0
   -1.3220    2.7909    0.7396 C   0  0  0  0  0  0  0  0  0  0  0  0
   -0.6192    3.5903    1.5840 O   0  0  0  0  0  0  0  0  0  0  0  0
   -2.5249    2.0055    0.6009 O   0  0  0  0  0  0  0  0  0  0  0  0
  1  2  1  0
  1  9  1  0
  1 13  1  0
  2  3  2  0
  2 12  1  0
  3  8  1  0
  4  5  1  0
  4  8  2  0
  5  6  2  0
  5 10  1  0
  6  7  1  0
  6 11  1  0
  7  9  2  0
  8  9  1  0
 13 14  1  0
 14 15  1  0
 15 16  1  0
 16 17  1  0
 17 18  2  0
 17 19  1  0
M  END
$$$$
