1Y0L_lig_H_HAN_1_hfixed.pdb
     RDKit          3D

 19 20  0  0  0  0  0  0  0  0999 V2000
   -1.3203   -0.0456    3.0354 N   0  0  0  0  0  0  0  0  0  0  0  0
   -0.7826   -0.4844    3.6906 C   0  0  0  0  0  0  0  0  0  0  0  0
   -1.2859    0.4039    4.1572 N   0  0  0  0  0  0  0  0  0  0  0  0
   -2.8770    2.3375    3.7868 C   0  0  0  0  0  0  0  0  0  0  0  0
   -3.6909    3.1025    2.7082 C   0  0  0  0  0  0  0  0  0  0  0  0
   -3.7267    2.8457    2.0023 C   0  0  0  0  0  0  0  0  0  0  0  0
   -3.0308    1.8771    1.9567 C   0  0  0  0  0  0  0  0  0  0  0  0
   -2.1710    1.2811    3.3988 C   0  0  0  0  0  0  0  0  0  0  0  0
   -2.2258    1.1012    2.7548 C   0  0  0  0  0  0  0  0  0  0  0  0
   -4.5184    4.4143    3.0350 C   0  0  0  0  0  0  0  0  0  0  0  0
   -4.5976    3.6000    1.1672 C   0  0  0  0  0  0  0  0  0  0  0  0
    0.1073   -1.5791    4.0274 N   0  0  0  0  0  0  0  0  0  0  0  0
   -1.1370   -0.4979    2.5894 C   0  0  0  0  0  0  0  0  0  0  0  0
   -1.5909    0.3354    2.8127 C   0  0  0  0  0  0  0  0  0  0  0  0
   -2.7305    0.8971    2.7706 C   0  0  0  0  0  0  0  0  0  0  0  0
   -2.5375    2.2213    2.6290 C   0  0  0  0  0  0  0  0  0  0  0  0
   -3.7309    2.8591    2.0081 C   0  0  0  0  0  0  0  0  0  0  0  0
   -3.7893    4.0323    2.1556 O   0  0  0  0  0  0  0  0  0  0  0  0
   -4.6212    2.1600    1.4620 O   0  0  0  0  0  0  0  0  0  0  0  0
  1  2  1  0
  1  9  1  0
  1 13  1  0
  2  3  2  0
  2 12  1  0
  3  8  1  0
  4  5  1  0
  4  8  2  0
  5  6  2  0
  5 10  1  0
  6  7  1  0
  6 11  1  0
  7  9  2  0
  8  9  1  0
 13 14  1  0
 14 15  1  0
 15 16  1  0
 16 17  1  0
 17 18  2  0
 17 19  1  0
M  END
$$$$
