1Y0L_lig_H_HAN_1_hfixed.pdb
     RDKit          3D

 19 20  0  0  0  0  0  0  0  0999 V2000
    1.7700    0.1219    3.0324 N   0  0  0  0  0  0  0  0  0  0  0  0
    2.3025    0.4610    3.5004 C   0  0  0  0  0  0  0  0  0  0  0  0
    1.9318    0.0617    3.0592 N   0  0  0  0  0  0  0  0  0  0  0  0
    0.1704   -1.4131    1.2409 C   0  0  0  0  0  0  0  0  0  0  0  0
   -0.5949   -1.7811    0.3505 C   0  0  0  0  0  0  0  0  0  0  0  0
   -0.5249   -1.5542    0.3517 C   0  0  0  0  0  0  0  0  0  0  0  0
    0.1550   -0.9498    1.1303 C   0  0  0  0  0  0  0  0  0  0  0  0
    0.9444   -0.6393    2.0092 C   0  0  0  0  0  0  0  0  0  0  0  0
    0.9271   -0.4759    2.0083 C   0  0  0  0  0  0  0  0  0  0  0  0
   -1.4253   -2.6196   -0.5016 C   0  0  0  0  0  0  0  0  0  0  0  0
   -1.3491   -2.0240   -0.5998 C   0  0  0  0  0  0  0  0  0  0  0  0
    3.1840    1.2152    4.4253 N   0  0  0  0  0  0  0  0  0  0  0  0
    2.0891    0.5704    3.8429 C   0  0  0  0  0  0  0  0  0  0  0  0
    2.8566    1.6320    3.9777 C   0  0  0  0  0  0  0  0  0  0  0  0
    3.3307    1.7417    5.2302 C   0  0  0  0  0  0  0  0  0  0  0  0
    4.3783    2.6014    5.1772 C   0  0  0  0  0  0  0  0  0  0  0  0
    5.1576    2.8529    6.5453 C   0  0  0  0  0  0  0  0  0  0  0  0
    5.6709    3.8383    6.9221 O   0  0  0  0  0  0  0  0  0  0  0  0
    5.0791    1.7611    7.3124 O   0  0  0  0  0  0  0  0  0  0  0  0
  1  2  1  0
  1  9  1  0
  1 13  1  0
  2  3  2  0
  2 12  1  0
  3  8  1  0
  4  5  1  0
  4  8  2  0
  5  6  2  0
  5 10  1  0
  6  7  1  0
  6 11  1  0
  7  9  2  0
  8  9  1  0
 13 14  1  0
 14 15  1  0
 15 16  1  0
 16 17  1  0
 17 18  2  0
 17 19  1  0
M  END
$$$$
