1Y0L_lig_H_HAN_1_hfixed.pdb
     RDKit          3D

 19 20  0  0  0  0  0  0  0  0999 V2000
   -3.2849    0.7212   -3.1198 N   0  0  0  0  0  0  0  0  0  0  0  0
   -3.0822    1.5754   -3.1621 C   0  0  0  0  0  0  0  0  0  0  0  0
   -3.1752    0.9116   -2.7182 N   0  0  0  0  0  0  0  0  0  0  0  0
   -3.7073   -1.5416   -1.9801 C   0  0  0  0  0  0  0  0  0  0  0  0
   -4.0820   -2.9939   -1.9931 C   0  0  0  0  0  0  0  0  0  0  0  0
   -4.1165   -3.0160   -2.2296 C   0  0  0  0  0  0  0  0  0  0  0  0
   -3.8890   -1.9542   -2.6023 C   0  0  0  0  0  0  0  0  0  0  0  0
   -3.5320   -0.5687   -2.5153 C   0  0  0  0  0  0  0  0  0  0  0  0
   -3.6020   -0.6835   -2.7291 C   0  0  0  0  0  0  0  0  0  0  0  0
   -4.4121   -4.3788   -1.3605 C   0  0  0  0  0  0  0  0  0  0  0  0
   -4.4666   -4.3390   -2.1767 C   0  0  0  0  0  0  0  0  0  0  0  0
   -2.7160    2.9548   -3.5127 N   0  0  0  0  0  0  0  0  0  0  0  0
   -3.2545    1.0053   -3.4537 C   0  0  0  0  0  0  0  0  0  0  0  0
   -2.8248    0.0896   -2.8146 C   0  0  0  0  0  0  0  0  0  0  0  0
   -3.5725   -0.9791   -3.0952 C   0  0  0  0  0  0  0  0  0  0  0  0
   -3.7194   -1.6235   -1.9939 C   0  0  0  0  0  0  0  0  0  0  0  0
   -4.0887   -2.9945   -2.3942 C   0  0  0  0  0  0  0  0  0  0  0  0
   -4.3254   -3.7092   -1.5009 O   0  0  0  0  0  0  0  0  0  0  0  0
   -4.1549   -3.3252   -3.5967 O   0  0  0  0  0  0  0  0  0  0  0  0
  1  2  1  0
  1  9  1  0
  1 13  1  0
  2  3  2  0
  2 12  1  0
  3  8  1  0
  4  5  1  0
  4  8  2  0
  5  6  2  0
  5 10  1  0
  6  7  1  0
  6 11  1  0
  7  9  2  0
  8  9  1  0
 13 14  1  0
 14 15  1  0
 15 16  1  0
 16 17  1  0
 17 18  2  0
 17 19  1  0
M  END
$$$$
