1Y0L_lig_H_HAN_1_hfixed.pdb
     RDKit          3D

 19 20  0  0  0  0  0  0  0  0999 V2000
   -1.0296    1.3951   -2.0070 N   0  0  0  0  0  0  0  0  0  0  0  0
   -0.6906    0.8855   -2.3015 C   0  0  0  0  0  0  0  0  0  0  0  0
   -0.8051    1.2778   -1.6357 N   0  0  0  0  0  0  0  0  0  0  0  0
   -1.8345    3.1929    0.3510 C   0  0  0  0  0  0  0  0  0  0  0  0
   -2.3729    4.0288    0.8252 C   0  0  0  0  0  0  0  0  0  0  0  0
   -2.4820    4.0840    0.6129 C   0  0  0  0  0  0  0  0  0  0  0  0
   -2.1376    3.3658   -0.2587 C   0  0  0  0  0  0  0  0  0  0  0  0
   -1.4844    2.3536   -0.7751 C   0  0  0  0  0  0  0  0  0  0  0  0
   -1.5794    2.4177   -0.9435 C   0  0  0  0  0  0  0  0  0  0  0  0
   -2.7741    4.9672    1.9520 C   0  0  0  0  0  0  0  0  0  0  0  0
   -3.0684    5.0837    1.3360 C   0  0  0  0  0  0  0  0  0  0  0  0
   -0.1599   -0.0702   -3.2770 N   0  0  0  0  0  0  0  0  0  0  0  0
   -0.8554    1.1309   -2.5305 C   0  0  0  0  0  0  0  0  0  0  0  0
   -1.0578    2.0694   -2.0663 C   0  0  0  0  0  0  0  0  0  0  0  0
   -1.4649    1.9543   -0.9306 C   0  0  0  0  0  0  0  0  0  0  0  0
   -1.2768    3.1485   -0.6677 C   0  0  0  0  0  0  0  0  0  0  0  0
   -2.3273    3.4569    0.2426 C   0  0  0  0  0  0  0  0  0  0  0  0
   -2.1389    4.3851    0.9359 O   0  0  0  0  0  0  0  0  0  0  0  0
   -3.3899    2.7599    0.3923 O   0  0  0  0  0  0  0  0  0  0  0  0
  1  2  1  0
  1  9  1  0
  1 13  1  0
  2  3  2  0
  2 12  1  0
  3  8  1  0
  4  5  1  0
  4  8  2  0
  5  6  2  0
  5 10  1  0
  6  7  1  0
  6 11  1  0
  7  9  2  0
  8  9  1  0
 13 14  1  0
 14 15  1  0
 15 16  1  0
 16 17  1  0
 17 18  2  0
 17 19  1  0
M  END
$$$$
