1Y0L_lig_H_HAN_1_hfixed.pdb
     RDKit          3D

 19 20  0  0  0  0  0  0  0  0999 V2000
   -1.2511   -2.1335    0.8003 N   0  0  0  0  0  0  0  0  0  0  0  0
   -2.0543   -1.9587    0.3617 C   0  0  0  0  0  0  0  0  0  0  0  0
   -1.3008   -2.0817   -0.1402 N   0  0  0  0  0  0  0  0  0  0  0  0
    1.3098   -2.5567   -0.3133 C   0  0  0  0  0  0  0  0  0  0  0  0
    2.7297   -2.7471    0.2450 C   0  0  0  0  0  0  0  0  0  0  0  0
    2.6378   -2.7161    0.6357 C   0  0  0  0  0  0  0  0  0  0  0  0
    1.4464   -2.5450    0.9112 C   0  0  0  0  0  0  0  0  0  0  0  0
    0.1937   -2.3468    0.1901 C   0  0  0  0  0  0  0  0  0  0  0  0
    0.2000   -2.3333    0.6461 C   0  0  0  0  0  0  0  0  0  0  0  0
    4.2021   -2.9782   -0.1221 C   0  0  0  0  0  0  0  0  0  0  0  0
    3.9688   -2.9768    0.9462 C   0  0  0  0  0  0  0  0  0  0  0  0
   -3.4908   -1.6883    0.2496 N   0  0  0  0  0  0  0  0  0  0  0  0
   -1.9454   -2.1081    1.3433 C   0  0  0  0  0  0  0  0  0  0  0  0
   -3.0933   -1.6036    0.3381 C   0  0  0  0  0  0  0  0  0  0  0  0
   -4.3059   -1.8962    0.9047 C   0  0  0  0  0  0  0  0  0  0  0  0
   -5.3092   -2.1214    0.3151 C   0  0  0  0  0  0  0  0  0  0  0  0
   -6.4053   -0.9610    0.3974 C   0  0  0  0  0  0  0  0  0  0  0  0
   -7.5804   -1.4486    0.4900 O   0  0  0  0  0  0  0  0  0  0  0  0
   -6.1030    0.2971    0.4051 O   0  0  0  0  0  0  0  0  0  0  0  0
  1  2  1  0
  1  9  1  0
  1 13  1  0
  2  3  2  0
  2 12  1  0
  3  8  1  0
  4  5  1  0
  4  8  2  0
  5  6  2  0
  5 10  1  0
  6  7  1  0
  6 11  1  0
  7  9  2  0
  8  9  1  0
 13 14  1  0
 14 15  1  0
 15 16  1  0
 16 17  1  0
 17 18  2  0
 17 19  1  0
M  END
$$$$
