1Y0L_lig_H_HAN_1_hfixed.pdb
 OpenBabel03082411473D

 38 39  0  0  0  0  0  0  0  0999 V2000
   19.5170   87.8010   41.9100 N   0  0  0  0  0  0  0  0  0  0  0  0
   20.9480   88.0010   42.0070 C   0  0  0  0  0  0  0  0  0  0  0  0
   21.5000   88.6390   41.0400 N   0  0  0  0  0  0  0  0  0  0  0  0
   20.5170   89.6430   38.8940 C   0  0  0  0  0  0  0  0  0  0  0  0
   19.3020   89.8230   38.1630 C   0  0  0  0  0  0  0  0  0  0  0  0
   18.0440   89.3080   38.7000 C   0  0  0  0  0  0  0  0  0  0  0  0
   18.0250   88.6240   39.9460 C   0  0  0  0  0  0  0  0  0  0  0  0
   20.4760   88.9440   40.1580 C   0  0  0  0  0  0  0  0  0  0  0  0
   19.2520   88.4450   40.6710 C   0  0  0  0  0  0  0  0  0  0  0  0
   19.4010   90.5710   36.8170 C   0  0  0  0  0  0  0  0  0  0  0  0
   16.6870   89.4570   37.9790 C   0  0  0  0  0  0  0  0  0  0  0  0
   21.7100   87.5220   43.0950 N   0  0  0  0  0  0  0  0  0  0  0  0
   18.5970   87.1100   42.8440 C   0  0  0  0  0  0  0  0  0  0  0  0
   17.9990   88.0270   43.9220 C   0  0  0  0  0  0  0  0  0  0  0  0
   18.3940   87.6030   45.3440 C   0  0  0  0  0  0  0  0  0  0  0  0
   17.7340   86.2770   45.7950 C   0  0  0  0  0  0  0  0  0  0  0  0
   16.8770   86.4180   47.0600 C   0  0  0  0  0  0  0  0  0  0  0  0
   15.7960   85.7900   47.1170 O   0  0  0  0  0  0  0  0  0  0  0  0
   17.2780   87.1510   48.0050 O   0  0  0  0  0  0  0  0  0  0  0  0
   21.4680   90.0310   38.5010 H   0  0  0  0  0  0  0  0  0  0  0  0
   17.0790   88.2350   40.3510 H   0  0  0  0  0  0  0  0  0  0  0  0
   19.5430   91.6460   37.0040 H   0  0  0  0  0  0  0  0  0  0  0  0
   20.2560   90.1820   36.2440 H   0  0  0  0  0  0  0  0  0  0  0  0
   18.4750   90.4180   36.2440 H   0  0  0  0  0  0  0  0  0  0  0  0
   15.8830   89.5450   38.7250 H   0  0  0  0  0  0  0  0  0  0  0  0
   16.7030   90.3590   37.3490 H   0  0  0  0  0  0  0  0  0  0  0  0
   16.5070   88.5730   37.3490 H   0  0  0  0  0  0  0  0  0  0  0  0
   22.7260   87.6870   43.1240 H   0  0  0  0  0  0  0  0  0  0  0  0
   21.2490   87.0080   43.8600 H   0  0  0  0  0  0  0  0  0  0  0  0
   17.7710   86.6780   42.2600 H   0  0  0  0  0  0  0  0  0  0  0  0
   19.1890   86.3460   43.3680 H   0  0  0  0  0  0  0  0  0  0  0  0
   18.3550   89.0530   43.7490 H   0  0  0  0  0  0  0  0  0  0  0  0
   16.9040   87.9590   43.8470 H   0  0  0  0  0  0  0  0  0  0  0  0
   19.4860   87.4790   45.3800 H   0  0  0  0  0  0  0  0  0  0  0  0
   18.0420   88.3900   46.0270 H   0  0  0  0  0  0  0  0  0  0  0  0
   17.0930   85.9120   44.9790 H   0  0  0  0  0  0  0  0  0  0  0  0
   18.5470   85.5760   46.0320 H   0  0  0  0  0  0  0  0  0  0  0  0
   16.7300   87.2470   48.8240 H   0  0  0  0  0  0  0  0  0  0  0  0
  1  2  1  0  0  0  0
  1  9  1  0  0  0  0
  1 13  1  0  0  0  0
  2  3  2  0  0  0  0
  2 12  1  0  0  0  0
  3  8  1  0  0  0  0
  4  5  2  0  0  0  0
  4  8  1  0  0  0  0
  4 20  1  0  0  0  0
  5  6  1  0  0  0  0
  5 10  1  0  0  0  0
  6  7  2  0  0  0  0
  6 11  1  0  0  0  0
  7  9  1  0  0  0  0
  7 21  1  0  0  0  0
  8  9  2  0  0  0  0
 10 22  1  0  0  0  0
 10 23  1  0  0  0  0
 10 24  1  0  0  0  0
 11 25  1  0  0  0  0
 11 26  1  0  0  0  0
 11 27  1  0  0  0  0
 12 28  1  0  0  0  0
 12 29  1  0  0  0  0
 13 14  1  0  0  0  0
 13 30  1  0  0  0  0
 13 31  1  0  0  0  0
 14 15  1  0  0  0  0
 14 32  1  0  0  0  0
 14 33  1  0  0  0  0
 15 16  1  0  0  0  0
 15 34  1  0  0  0  0
 15 35  1  0  0  0  0
 16 17  1  0  0  0  0
 16 36  1  0  0  0  0
 16 37  1  0  0  0  0
 17 18  2  0  0  0  0
 17 19  1  0  0  0  0
 19 38  1  0  0  0  0
M  END
$$$$
